# created with PyMOL 2.3.2
@<TRIPOS>MOLECULE
2jie.renumbered
11 11 1                 
SMALL
USER_CHARGES
@<TRIPOS>ATOM
1	  C1	67.842	31.783	38.373	C.3	1	G2F1449	0.000	
2	  C2	67.880	31.943	39.930	C.3	1	G2F1449	0.000	
3	  C3	69.054	31.113	40.489	C.3	1	G2F1449	0.000	
4	  O3	68.994	31.188	41.904	O.3	1	G2F1449	0.000	
5	  C4	69.000	29.620	40.045	C.3	1	G2F1449	0.000	
6	  O4	70.162	28.905	40.517	O.3	1	G2F1449	0.000	
7	  C5	68.820	29.574	38.490	C.3	1	G2F1449	0.000	
8	  O5	67.686	30.378	38.099	O.3	1	G2F1449	0.000	
9	  C6	68.608	28.189	37.872	C.3	1	G2F1449	0.000	
10	  O6	67.524	27.505	38.490	O.3	1	G2F1449	0.000	
11	  F2	67.931	33.337	40.383	 F	1	G2F1449	0.000	
@<TRIPOS>BOND
1 1 2 1
2 1 8 1
3 2 3 1
4 2 11 1
5 3 4 1
6 3 5 1
7 5 6 1
8 5 7 1
9 7 8 1
10 7 9 1
11 9 10 1
@<TRIPOS>SUBSTRUCTURE
1	G2F1449	1	GROUP	1 A	G2F
